Circuit: * C:\Users\Nicholas\Desktop\DifferentialPairEngineeringDesign\CMOS-Differential-Pair\differential_pair.asc

Warning: Multiple definitions of model "aons66402" Type: Vdmos1
WARNING: Less than two connections to node VSS.  This node is used by VSS1.
Warning: toxe, toxp and dtox all given and toxe != toxp + dtox; dtox ignored.
Direct Newton iteration for .op point succeeded.

Date: Sat Apr 24 12:54:13 2021
Total elapsed time: 0.090 seconds.

tnom = 27
temp = 27
method = trap
totiter = 6
traniter = 0
tranpoints = 0
accept = 0
rejected = 0
matrix size = 24
fillins = 0
solver = Normal
Matrix Compiler1:     101 opcodes
Matrix Compiler2: 2.07 KB object code size
