Circuit: * C:\Users\maxwe\Desktop\SPRING 2021 Documents\Engineering Design\GitHub\CMOS-Differential-Pair\differential_pair.asc

Warning: toxe, toxp and dtox all given and toxe != toxp + dtox; dtox ignored.
Direct Newton iteration for .op point succeeded.

Date: Fri Apr 30 00:50:07 2021
Total elapsed time: 0.059 seconds.

tnom = 27
temp = 27
method = trap
totiter = 12
traniter = 0
tranpoints = 0
accept = 0
rejected = 0
matrix size = 64
fillins = 0
solver = Normal
Matrix Compiler1:     402 opcodes
Matrix Compiler2: 6.84 KB object code size
