Circuit: * C:\Users\scott\Documents\OneDrive - Gonzaga University\Junior year\Second Semester\Engineering Design\CMOS-Differential-Pair\differential_pair.asc

Warning: toxe, toxp and dtox all given and toxe != toxp + dtox; dtox ignored.
Direct Newton iteration for .op point succeeded.

Date: Mon May 03 00:14:34 2021
Total elapsed time: 0.125 seconds.

tnom = 27
temp = 27
method = trap
totiter = 7
traniter = 0
tranpoints = 0
accept = 0
rejected = 0
matrix size = 34
fillins = 0
solver = Normal
Matrix Compiler1:     227 opcodes
Matrix Compiler2: 4.03 KB object code size
