Circuit: * C:\Users\maxwe\Desktop\SPRING 2021 Documents\Engineering Design\GitHub\CMOS-Differential-Pair\differential_pair.asc

WARNING: Less than two connections to node NC_01.  This node is used by VCM2.
Warning: toxe, toxp and dtox all given and toxe != toxp + dtox; dtox ignored.
Direct Newton iteration for .op point succeeded.

Date: Mon May 03 00:14:09 2021
Total elapsed time: 0.057 seconds.

tnom = 27
temp = 27
method = trap
totiter = 6
traniter = 0
tranpoints = 0
accept = 0
rejected = 0
matrix size = 68
fillins = 0
solver = Normal
Matrix Compiler1:     410 opcodes
Matrix Compiler2: 7.14 KB object code size
