Circuit: * C:\Users\maxwe\Desktop\SPRING 2021 Documents\Engineering Design\GitHub\CMOS-Differential-Pair\differential_pair.asc

WARNING: Node VI- is floating.
WARNING: Node VI+ is floating.

WARNING: Less than two connections to node VI-.  This node is used by M§T2.
WARNING: Less than two connections to node VI+.  This node is used by M§T1.
Warning: toxe, toxp and dtox all given and toxe != toxp + dtox; dtox ignored.
Direct Newton iteration for .op point succeeded.

Date: Tue Apr 13 15:49:33 2021
Total elapsed time: 0.055 seconds.

tnom = 27
temp = 27
method = trap
totiter = 18
traniter = 0
tranpoints = 0
accept = 0
rejected = 0
matrix size = 63
fillins = 4
solver = Normal
Matrix Compiler1:     478 opcodes
Matrix Compiler2: 7.32 KB object code size
