Circuit: * C:\Users\scott\Documents\OneDrive - Gonzaga University\Junior year\Second Semester\Engineering Design\CMOS-Differential-Pair\Draft1.asc

Error on line 4 : r1 n004 n006 47 k
	 Unknown parameter "k"
Error on line 6 : r§3.9k n005 n006 3.9 k
	 Unknown parameter "k"
V3: Missing value, assumed 0V @ DC
No AC stimulus found:
     Set the value of a current or voltage source to "AC 1."
     to make it behave as a signal generator for AC analysis.
Direct Newton iteration for .op point succeeded.

Date: Wed Apr 14 23:40:56 2021
Total elapsed time: 0.046 seconds.

tnom = 27
temp = 27
method = trap
totiter = 5
traniter = 0
tranpoints = 0
accept = 0
rejected = 0
matrix size = 9
fillins = 0
solver = Normal
Matrix Compiler1:      22 opcodes
Matrix Compiler2: 681 bytes object code size
