Circuit: * C:\Users\maxwe\Desktop\SPRING 2021 Documents\Engineering Design\GitHub\CMOS-Differential-Pair\Draft1.asc

Warning: toxe, toxp and dtox all given and toxe != toxp + dtox; dtox ignored.
.OP point found by inspection.

Date: Tue Apr 13 15:07:11 2021
Total elapsed time: 0.045 seconds.

tnom = 27
temp = 27
method = trap
totiter = 0
traniter = 0
tranpoints = 0
accept = 0
rejected = 0
matrix size = 30
fillins = 2
solver = Normal

