Circuit: * C:\Users\scott\Documents\OneDrive - Gonzaga University\Junior year\Second Semester\Engineering Design\CMOS-Differential-Pair\test2.asc

Warning: toxe, toxp and dtox all given and toxe != toxp + dtox; dtox ignored.
Direct Newton iteration for .op point succeeded.

Date: Tue Apr 27 19:58:37 2021
Total elapsed time: 0.097 seconds.

tnom = 27
temp = 27
method = trap
totiter = 13
traniter = 0
tranpoints = 0
accept = 0
rejected = 0
matrix size = 19
fillins = 0
solver = Normal
Matrix Compiler1:      92 opcodes
Matrix Compiler2: 1.78 KB object code size
