Circuit: * C:\Users\scott\Documents\OneDrive - Gonzaga University\Junior year\Second Semester\Engineering Design\CMOS-Differential-Pair\test1.asc

Warning: toxe, toxp and dtox all given and toxe != toxp + dtox; dtox ignored.
Direct Newton iteration for .op point succeeded.

Date: Thu May 06 19:00:35 2021
Total elapsed time: 0.095 seconds.

tnom = 27
temp = 27
method = trap
totiter = 5
traniter = 0
tranpoints = 0
accept = 0
rejected = 0
matrix size = 36
fillins = 0
solver = Normal
Matrix Compiler1:     218 opcodes
Matrix Compiler2: 4.08 KB object code size
