Circuit: * C:\Users\scott\Documents\OneDrive - Gonzaga University\Junior year\Second Semester\Engineering Design\CMOS-Differential-Pair\test1.asc

Warning: toxe, toxp and dtox all given and toxe != toxp + dtox; dtox ignored.
Direct Newton iteration for .op point succeeded.

Date: Sun Apr 25 15:05:22 2021
Total elapsed time: 0.071 seconds.

tnom = 27
temp = 27
method = trap
totiter = 6
traniter = 0
tranpoints = 0
accept = 0
rejected = 0
matrix size = 27
fillins = 0
solver = Normal
Matrix Compiler1:     154 opcodes
Matrix Compiler2: 2.85 KB object code size
